Version 4
SHEET 1 5176 960
WIRE 2144 -704 2128 -704
WIRE 2128 -688 2128 -704
WIRE 2128 -688 1440 -688
WIRE 2800 -688 2128 -688
WIRE 2896 -688 2800 -688
WIRE 2448 -672 1584 -672
WIRE 2496 -672 2448 -672
WIRE 2144 -624 2064 -624
WIRE 1952 -576 1776 -576
WIRE 1984 -576 1952 -576
WIRE 2496 -576 2496 -672
WIRE 2304 -560 2256 -560
WIRE 2064 -544 2064 -624
WIRE 2704 -528 2400 -528
WIRE 2800 -512 2800 -688
WIRE 1440 -496 1440 -688
WIRE 1584 -496 1584 -672
WIRE 1776 -496 1776 -576
WIRE 1984 -496 1984 -576
WIRE 2000 -496 1984 -496
WIRE 2704 -496 2704 -528
WIRE 2768 -496 2704 -496
WIRE 2400 -480 2400 -528
WIRE 2400 -480 2304 -480
WIRE 2496 -480 2496 -496
WIRE 2576 -480 2496 -480
WIRE 2896 -480 2896 -608
WIRE 2896 -480 2832 -480
WIRE 2256 -464 2256 -560
WIRE 2256 -464 2144 -464
WIRE 2576 -464 2576 -480
WIRE 2768 -464 2576 -464
WIRE 1440 -384 1440 -416
WIRE 1584 -384 1584 -416
WIRE 1584 -384 1440 -384
WIRE 1776 -384 1776 -416
WIRE 1776 -384 1584 -384
WIRE 2064 -384 2064 -448
WIRE 2064 -384 1776 -384
WIRE 2144 -384 2064 -384
WIRE 2304 -384 2304 -416
WIRE 2304 -384 2144 -384
WIRE 2496 -384 2496 -416
WIRE 2496 -384 2304 -384
WIRE 2800 -384 2800 -448
WIRE 2800 -384 2496 -384
WIRE 1776 -368 1776 -384
FLAG 1776 -368 0
FLAG 2576 -480 strom_f
FLAG 2448 -672 strom
FLAG 2896 -480 nen
FLAG 1952 -576 pwm
FLAG 2304 -480 max
SYMBOL cap 2288 -480 R0
SYMATTR InstName C1
SYMATTR Value 100n
SYMBOL voltage 1776 -512 R0
WINDOW 3 24 96 Invisible 2
SYMATTR InstName V4
SYMATTR Value PULSE(0 5 0 10n 10n 0.00005 0.0000625 100)
SYMATTR SpiceLine Rser=1
SYMBOL res 2288 -576 R0
SYMATTR InstName R14
SYMATTR Value 5k
SYMBOL Comparators/LM339 2800 -544 R0
SYMATTR InstName U1
SYMBOL res 2480 -592 R0
SYMATTR InstName R1
SYMATTR Value 1k
SYMBOL cap 2480 -480 R0
SYMATTR InstName C2
SYMATTR Value 47n
SYMBOL res 2128 -640 R0
SYMATTR InstName R2
SYMATTR Value 8k
SYMBOL res 2128 -480 R0
SYMATTR InstName R3
SYMATTR Value 900
SYMBOL voltage 1584 -512 R0
SYMATTR InstName V1
SYMATTR Value SINE(0.25 0.25 500 0)
SYMATTR SpiceLine Rser=1
SYMBOL voltage 1440 -512 R0
SYMATTR InstName V2
SYMATTR Value 5.1
SYMATTR SpiceLine Rser=1
SYMBOL res 2880 -704 R0
SYMATTR InstName R4
SYMATTR Value 9k
SYMBOL res 2128 -560 R0
SYMATTR InstName R5
SYMATTR Value 100
SYMBOL npn 2000 -544 R0
SYMATTR InstName Q1
SYMBOL res 2128 -720 R0
SYMATTR InstName R6
SYMATTR Value 1k
TEXT 1664 -48 Left 2 !.tran 0 10mS
