Version 4
SHEET 1 5176 960
WIRE 2144 -704 2128 -704
WIRE 1936 -688 1440 -688
WIRE 2000 -688 1936 -688
WIRE 2048 -688 2000 -688
WIRE 2128 -688 2128 -704
WIRE 2128 -688 2048 -688
WIRE 2560 -688 2128 -688
WIRE 2800 -688 2560 -688
WIRE 2896 -688 2800 -688
WIRE 2448 -672 1584 -672
WIRE 2496 -672 2448 -672
WIRE 1936 -624 1936 -688
WIRE 2144 -624 2096 -624
WIRE 1840 -576 1776 -576
WIRE 1856 -576 1840 -576
WIRE 2496 -576 2496 -672
WIRE 2304 -560 2256 -560
WIRE 1984 -544 1936 -544
WIRE 2048 -528 2048 -688
WIRE 2704 -528 2400 -528
WIRE 1984 -512 1984 -544
WIRE 2016 -512 1984 -512
WIRE 2800 -512 2800 -688
WIRE 1440 -496 1440 -688
WIRE 1584 -496 1584 -672
WIRE 1776 -496 1776 -576
WIRE 1872 -496 1856 -496
WIRE 2096 -496 2096 -624
WIRE 2096 -496 2080 -496
WIRE 2704 -496 2704 -528
WIRE 2768 -496 2704 -496
WIRE 2000 -480 2000 -608
WIRE 2016 -480 2000 -480
WIRE 2400 -480 2400 -528
WIRE 2400 -480 2304 -480
WIRE 2496 -480 2496 -496
WIRE 2560 -480 2560 -608
WIRE 2560 -480 2496 -480
WIRE 2576 -480 2560 -480
WIRE 2896 -480 2896 -608
WIRE 2896 -480 2832 -480
WIRE 2000 -464 2000 -480
WIRE 2256 -464 2256 -560
WIRE 2256 -464 2144 -464
WIRE 2576 -464 2576 -480
WIRE 2768 -464 2576 -464
WIRE 1440 -384 1440 -416
WIRE 1584 -384 1584 -416
WIRE 1584 -384 1440 -384
WIRE 1776 -384 1776 -416
WIRE 1776 -384 1584 -384
WIRE 1936 -384 1936 -448
WIRE 1936 -384 1776 -384
WIRE 2000 -384 1936 -384
WIRE 2048 -384 2048 -464
WIRE 2048 -384 2000 -384
WIRE 2144 -384 2048 -384
WIRE 2304 -384 2304 -416
WIRE 2304 -384 2144 -384
WIRE 2496 -384 2496 -416
WIRE 2496 -384 2304 -384
WIRE 2800 -384 2800 -448
WIRE 2800 -384 2496 -384
WIRE 1776 -368 1776 -384
FLAG 1776 -368 0
FLAG 2576 -480 strom_f
FLAG 2448 -672 strom
FLAG 2896 -480 nen
FLAG 2304 -480 max
FLAG 1840 -576 pwm
SYMBOL cap 2288 -480 R0
SYMATTR InstName C1
SYMATTR Value 100n
SYMBOL voltage 1776 -512 R0
WINDOW 3 24 96 Invisible 2
SYMATTR InstName V4
SYMATTR Value PULSE(0 5 0 10n 10n 0.00003 0.0000625 100)
SYMATTR SpiceLine Rser=1
SYMBOL res 2288 -576 R0
SYMATTR InstName R14
SYMATTR Value 4k
SYMBOL Comparators/LM339 2800 -544 R0
SYMATTR InstName U1
SYMBOL res 2480 -592 R0
SYMATTR InstName R1
SYMATTR Value 1k
SYMBOL cap 2480 -480 R0
SYMATTR InstName C2
SYMATTR Value 47n
SYMBOL res 2128 -640 R0
SYMATTR InstName R2
SYMATTR Value 8.7k
SYMBOL res 2128 -480 R0
SYMATTR InstName R3
SYMATTR Value 900
SYMBOL voltage 1584 -512 R0
SYMATTR InstName V1
SYMATTR Value SINE(0.25 0.25 500 0)
SYMATTR SpiceLine Rser=1
SYMBOL voltage 1440 -512 R0
SYMATTR InstName V2
SYMATTR Value 5.1
SYMATTR SpiceLine Rser=0
SYMBOL res 2880 -704 R0
SYMATTR InstName R4
SYMATTR Value 9k
SYMBOL res 2128 -560 R0
SYMATTR InstName R5
SYMATTR Value 100
SYMBOL npn 1872 -544 R0
SYMATTR InstName Q1
SYMBOL res 1840 -592 R0
SYMATTR InstName R7
SYMATTR Value 500
SYMBOL res 2544 -704 R0
SYMATTR InstName R8
SYMATTR Value 100k
SYMBOL Comparators/LM339 2048 -560 R0
SYMATTR InstName U2
SYMBOL res 1920 -640 R0
SYMATTR InstName R6
SYMATTR Value 1k
SYMBOL res 1984 -704 R0
SYMATTR InstName R9
SYMATTR Value 1k
SYMBOL res 1984 -480 R0
SYMATTR InstName R10
SYMATTR Value 1k
SYMBOL res 2128 -720 R0
SYMATTR InstName R11
SYMATTR Value 300
TEXT 1664 -48 Left 2 !.tran 0 10mS
