Version 4
SHEET 1 5176 960
WIRE 2640 -832 2496 -832
WIRE 3296 -832 2640 -832
WIRE 3568 -832 3296 -832
WIRE 1584 -688 1376 -688
WIRE 1664 -688 1584 -688
WIRE 1760 -688 1664 -688
WIRE 2560 -688 1760 -688
WIRE 2800 -688 2560 -688
WIRE 2912 -688 2800 -688
WIRE 3184 -688 3152 -688
WIRE 3376 -688 3184 -688
WIRE 2912 -608 2912 -688
WIRE 3152 -608 3152 -624
WIRE 3184 -608 3152 -608
WIRE 3248 -608 3184 -608
WIRE 1520 -576 1456 -576
WIRE 1584 -576 1584 -608
WIRE 1696 -576 1584 -576
WIRE 2496 -576 2496 -832
WIRE 1760 -560 1760 -688
WIRE 2304 -560 2016 -560
WIRE 1584 -544 1584 -576
WIRE 1696 -544 1696 -576
WIRE 1728 -544 1696 -544
WIRE 1872 -544 1824 -544
WIRE 2384 -544 2352 -544
WIRE 2608 -544 2448 -544
WIRE 2704 -544 2608 -544
WIRE 1824 -528 1824 -544
WIRE 1824 -528 1792 -528
WIRE 2912 -528 2896 -528
WIRE 3008 -528 2912 -528
WIRE 3136 -528 3008 -528
WIRE 3568 -528 3568 -832
WIRE 1664 -512 1664 -608
WIRE 1696 -512 1664 -512
WIRE 1728 -512 1696 -512
WIRE 2800 -512 2800 -688
WIRE 3248 -512 3248 -544
WIRE 3248 -512 3184 -512
WIRE 1376 -496 1376 -688
WIRE 1456 -496 1456 -576
WIRE 2768 -496 2672 -496
WIRE 2016 -480 2016 -560
WIRE 2016 -480 2000 -480
WIRE 2352 -480 2352 -544
WIRE 2352 -480 2304 -480
WIRE 2496 -480 2496 -496
WIRE 2560 -480 2560 -608
WIRE 2560 -480 2496 -480
WIRE 2576 -480 2560 -480
WIRE 2896 -480 2896 -528
WIRE 2896 -480 2832 -480
WIRE 3184 -480 3184 -512
WIRE 3296 -480 3296 -832
WIRE 3296 -480 3184 -480
WIRE 1696 -464 1696 -512
WIRE 2000 -464 2000 -480
WIRE 2000 -464 1872 -464
WIRE 2448 -464 2448 -544
WIRE 2448 -464 2384 -464
WIRE 2576 -464 2576 -480
WIRE 2672 -464 2672 -496
WIRE 2672 -464 2576 -464
WIRE 2704 -464 2704 -544
WIRE 2768 -464 2704 -464
WIRE 3184 -464 3184 -480
WIRE 3376 -464 3376 -688
WIRE 3680 -448 3568 -448
WIRE 3696 -448 3680 -448
WIRE 3824 -448 3776 -448
WIRE 3856 -448 3824 -448
WIRE 1376 -384 1376 -416
WIRE 1456 -384 1456 -416
WIRE 1456 -384 1376 -384
WIRE 1584 -384 1584 -448
WIRE 1584 -384 1456 -384
WIRE 1696 -384 1584 -384
WIRE 1760 -384 1760 -496
WIRE 1760 -384 1696 -384
WIRE 1776 -384 1760 -384
WIRE 1872 -384 1776 -384
WIRE 2304 -384 2304 -416
WIRE 2304 -384 1872 -384
WIRE 2384 -384 2304 -384
WIRE 2448 -384 2448 -400
WIRE 2448 -384 2384 -384
WIRE 2496 -384 2496 -416
WIRE 2496 -384 2448 -384
WIRE 2672 -384 2672 -400
WIRE 2672 -384 2496 -384
WIRE 2800 -384 2800 -448
WIRE 2800 -384 2672 -384
WIRE 3008 -384 3008 -464
WIRE 3008 -384 2800 -384
WIRE 3184 -384 3008 -384
WIRE 3376 -384 3184 -384
WIRE 3568 -384 3376 -384
WIRE 3776 -384 3568 -384
WIRE 1776 -368 1776 -384
FLAG 1776 -368 0
FLAG 2576 -480 strom_f
FLAG 2896 -480 nen
FLAG 2304 -480 max
FLAG 1456 -576 pwm
FLAG 2640 -832 strom
FLAG 2608 -544 max_f
FLAG 3680 -448 dst
FLAG 3824 -448 dsti
SYMBOL cap 2288 -480 R0
SYMATTR InstName C1
SYMATTR Value 100n
SYMBOL voltage 1456 -512 R0
WINDOW 3 24 96 Invisible 2
SYMATTR Value PULSE(0 5 0 0 0 0.0625m 0.0625m 100)
SYMATTR InstName V4
SYMATTR SpiceLine Rser=1
SYMBOL res 2288 -576 R0
SYMATTR InstName R14
SYMATTR Value 100
SYMBOL res 2480 -592 R0
SYMATTR InstName R1
SYMATTR Value 1k
SYMBOL cap 2480 -480 R0
SYMATTR InstName C2
SYMATTR Value 100n
SYMBOL res 1856 -480 R0
SYMATTR InstName R3
SYMATTR Value 700
SYMBOL voltage 1376 -512 R0
SYMATTR InstName V2
SYMATTR Value 5
SYMATTR SpiceLine Rser=0
SYMBOL npn 1520 -544 R0
SYMATTR InstName Q1
SYMBOL res 1504 -592 R0
SYMATTR InstName R7
SYMATTR Value 200
SYMBOL res 2544 -704 R0
SYMATTR InstName R8
SYMATTR Value 100k
SYMBOL res 3168 -480 R0
SYMATTR InstName R5
SYMATTR Value 0.02
SYMBOL ind 3168 -704 R0
SYMATTR InstName L1
SYMATTR Value 30m
SYMATTR SpiceLine Rser=50
SYMBOL voltage 3376 -480 R0
WINDOW 3 24 96 Invisible 2
SYMATTR Value 300
SYMATTR InstName V1
SYMATTR SpiceLine Rser=0.1
SYMBOL nmos 3136 -608 R0
SYMATTR InstName M1
SYMATTR Value BUK9219-55A
SYMBOL diode 3264 -544 R180
WINDOW 0 24 64 Left 2
WINDOW 3 24 0 Left 2
SYMATTR InstName D1
SYMBOL res 1856 -560 R0
SYMATTR InstName R12
SYMATTR Value 4.3k
SYMBOL res 1568 -704 R0
SYMATTR InstName R4
SYMATTR Value 1k
SYMBOL Opamps/LT1498 1760 -592 R0
SYMATTR InstName U3
SYMBOL res 1648 -704 R0
SYMATTR InstName R6
SYMATTR Value 1k
SYMBOL res 1680 -480 R0
SYMATTR InstName R9
SYMATTR Value 1k
SYMBOL res 2368 -480 R0
SYMATTR InstName R10
SYMATTR Value 5k
SYMBOL res 2368 -560 R0
SYMATTR InstName R11
SYMATTR Value 40k
SYMBOL cap 2432 -464 R0
SYMATTR InstName C3
SYMATTR Value 100n
SYMBOL Comparators/LM339 2800 -544 R0
SYMATTR InstName U1
SYMBOL res 2896 -624 R0
SYMATTR InstName R2
SYMATTR Value 1k
SYMBOL diode 3024 -464 R180
WINDOW 0 24 64 Left 2
WINDOW 3 24 0 Left 2
SYMATTR InstName D2
SYMBOL cap 3552 -448 R0
SYMATTR InstName C4
SYMATTR Value 100n
SYMBOL res 3552 -544 R0
SYMATTR InstName R13
SYMATTR Value 4k
SYMBOL res 3792 -464 R90
WINDOW 0 0 56 VBottom 2
WINDOW 3 32 56 VTop 2
SYMATTR InstName R15
SYMATTR Value 5k
SYMBOL cap 3760 -448 R0
SYMATTR InstName C5
SYMATTR Value 100n
TEXT 1664 -48 Left 2 !.tran 0 10mS
